Version 4.1
SHEET 1 924 680
WIRE -208 48 -304 48
WIRE 0 48 -128 48
WIRE 80 48 64 48
WIRE 208 48 160 48
WIRE 288 48 208 48
WIRE 320 48 288 48
WIRE 416 48 384 48
WIRE 848 48 496 48
WIRE -304 64 -304 48
WIRE 208 144 208 112
WIRE 288 144 288 128
WIRE 288 144 208 144
WIRE 304 144 288 144
WIRE 304 160 304 144
FLAG 304 160 0
FLAG 848 48 V_RF
FLAG -304 144 0
SYMBOL voltage -304 48 R0
WINDOW 123 24 124 Left 2
WINDOW 39 24 152 Left 2
SYMATTR Value2 AC 1 0
SYMATTR SpiceLine Rser=0
SYMATTR InstName Vp
SYMATTR Value SINE(0 1m 5Meg)
SYMBOL res -112 32 R90
WINDOW 0 0 56 VBottom 2
WINDOW 3 32 56 VTop 2
SYMATTR InstName R1
SYMATTR Value 50
SYMBOL cap 64 32 R90
WINDOW 0 -54 42 VBottom 2
WINDOW 3 -51 41 VTop 2
SYMATTR InstName C1
SYMATTR Value {C_top}
SYMBOL cap 224 112 R180
WINDOW 0 24 56 Left 2
WINDOW 3 24 8 Left 2
SYMATTR InstName C2
SYMATTR Value {C_down}
SYMBOL cap 320 64 R270
WINDOW 0 32 32 VTop 2
WINDOW 3 0 32 VBottom 2
SYMATTR InstName C3
SYMATTR Value {C_top}
SYMBOL ind 176 32 R90
WINDOW 0 -53 54 VBottom 2
WINDOW 3 -51 52 VTop 2
SYMATTR InstName L1
SYMATTR Value {L_top}
SYMBOL ind 304 144 R180
WINDOW 0 -28 25 Left 2
WINDOW 3 -65 -57 Left 2
SYMATTR InstName L2
SYMATTR Value {L_down}
SYMBOL ind 400 64 R270
WINDOW 0 32 56 VTop 2
WINDOW 3 5 56 VBottom 2
SYMATTR InstName L3
SYMATTR Value {L_top}
TEXT -272 240 Left 2 !.ac dec 100 1Meg 50Meg
TEXT -296 432 Left 2 ;.noise V(V_RF) Vp dec 100 1k 100Meg
TEXT -296 408 Left 2 !.param C_top=353pF L_top=663n C_down=530p L_down=442n
TEXT -296 -216 Left 6 ;Bandpass Filter for HF Band
