Version 4.1
SHEET 1 1076 680
WIRE -144 128 -256 128
WIRE -16 128 -80 128
WIRE 16 128 -16 128
WIRE 144 128 96 128
WIRE 256 128 144 128
WIRE 304 128 256 128
WIRE 144 160 144 128
WIRE -16 176 -16 128
WIRE -16 256 -16 240
WIRE 64 256 -16 256
WIRE 144 256 144 224
WIRE 144 256 64 256
WIRE 64 288 64 256
FLAG -400 400 0
FLAG -400 320 I_Input
IOPIN -400 320 Out
FLAG -256 128 I_Input
IOPIN -256 128 In
FLAG 304 128 I_SIGNAL
IOPIN 304 128 Out
FLAG 64 288 0
FLAG 256 208 0
SYMBOL voltage -400 304 R0
WINDOW 123 40 45 Left 2
WINDOW 39 39 67 Left 2
WINDOW 0 42 19 Left 2
SYMATTR Value2 AC 1
SYMATTR SpiceLine Rser=50
SYMATTR InstName V2
SYMATTR Value ""
SYMBOL cap -80 112 R90
WINDOW 0 0 32 VBottom 2
WINDOW 3 32 32 VTop 2
SYMATTR InstName C1
SYMATTR Value 100n
SYMBOL cap 0 240 R180
WINDOW 0 24 56 Left 2
WINDOW 3 24 8 Left 2
SYMATTR InstName C2
SYMATTR Value 1.59n
SYMBOL cap 160 224 R180
WINDOW 0 24 56 Left 2
WINDOW 3 24 8 Left 2
SYMATTR InstName C3
SYMATTR Value 1.59n
SYMBOL ind 112 112 R90
WINDOW 0 5 56 VBottom 2
WINDOW 3 32 56 VTop 2
SYMATTR InstName L1
SYMATTR Value 7.95”
SYMBOL res 240 112 R0
SYMATTR InstName R_l
SYMATTR Value 50
TEXT -80 392 Left 2 !.ac dec 100 100 10Meg
TEXT -424 -56 Left 4 ;Low Pass Filter
TEXT -416 -8 Left 2 ;Antenna Low Pass Filter for AM Frequencies
TEXT -408 16 Left 2 ;<2MHz
